data_linker91_C_linker1_C_hcb_relaxed
_audit_creation_date              2023-04-07
_audit_creation_method            'Materials Studio'
_symmetry_space_group_name_H-M    'P1'
_symmetry_Int_Tables_number       1
_symmetry_cell_setting            triclinic
loop_
_symmetry_equiv_pos_as_xyz
  x,y,z
_cell_length_a                    14.5417
_cell_length_b                    14.5417
_cell_length_c                    9.8027
_cell_angle_alpha                 90.0000
_cell_angle_beta                  90.0000
_cell_angle_gamma                 120.0000
loop_
_atom_site_label
_atom_site_type_symbol
_atom_site_fract_x
_atom_site_fract_y
_atom_site_fract_z
_atom_site_U_iso_or_equiv
_atom_site_adp_type
_atom_site_occupancy
N1     N     0.27957   0.72043   0.38962   1.00000  Uiso   1.00
C2     C     0.52846   0.47154   0.27105   1.00000  Uiso   1.00
C3     C     0.52765   0.47235   0.52098   1.00000  Uiso   1.00
C4     C     0.55656   0.44344   0.39595   1.00000  Uiso   1.00
N5     N     0.55201   0.44799   0.64496   1.00000  Uiso   1.00
N6     N     0.27957   0.55913   0.38962   1.00000  Uiso   1.00
C7     C     0.52846   0.05693   0.27105   1.00000  Uiso   1.00
C8     C     0.52765   0.05529   0.52098   1.00000  Uiso   1.00
C9     C     0.55656   0.11312   0.39595   1.00000  Uiso   1.00
N10    N     0.55201   0.10402   0.64496   1.00000  Uiso   1.00
N11    N     0.44087   0.72043   0.38962   1.00000  Uiso   1.00
C12    C     0.94307   0.47154   0.27105   1.00000  Uiso   1.00
C13    C     0.94471   0.47235   0.52098   1.00000  Uiso   1.00
C14    C     0.88688   0.44344   0.39595   1.00000  Uiso   1.00
N15    N     0.89598   0.44799   0.64496   1.00000  Uiso   1.00
C16    C     0.22481   0.61241   0.38918   1.00000  Uiso   1.00
C17    C     0.05483   0.52741   0.26867   1.00000  Uiso   1.00
C18    C     0.11324   0.55662   0.39134   1.00000  Uiso   1.00
C19    C     0.05741   0.52871   0.51625   1.00000  Uiso   1.00
C20    C     0.38759   0.61241   0.38918   1.00000  Uiso   1.00
C21    C     0.47259   0.52741   0.26867   1.00000  Uiso   1.00
C22    C     0.44338   0.55662   0.39134   1.00000  Uiso   1.00
C23    C     0.47129   0.52871   0.51625   1.00000  Uiso   1.00
C24    C     0.38759   0.77519   0.38918   1.00000  Uiso   1.00
C25    C     0.47259   0.94517   0.26867   1.00000  Uiso   1.00
C26    C     0.44338   0.88676   0.39134   1.00000  Uiso   1.00
C27    C     0.47129   0.94259   0.51625   1.00000  Uiso   1.00
N28    N     0.55914   0.27957   0.39217   1.00000  Uiso   1.00
N29    N     0.72043   0.27957   0.39217   1.00000  Uiso   1.00
N30    N     0.72043   0.44086   0.39217   1.00000  Uiso   1.00
C31    C     0.61240   0.22480   0.39125   1.00000  Uiso   1.00
C32    C     0.77520   0.38760   0.39125   1.00000  Uiso   1.00
C33    C     0.61240   0.38760   0.39125   1.00000  Uiso   1.00
H34    H     0.55174   0.44826   0.17131   0.00000  Uiso   1.00
H35    H     0.59568   0.40366   0.65130   0.00000  Uiso   1.00
H36    H     0.52820   0.47246   0.73970   0.00000  Uiso   1.00
H37    H     0.55174   0.10348   0.17131   0.00000  Uiso   1.00
H38    H     0.89652   0.44826   0.17131   0.00000  Uiso   1.00
H39    H     0.80798   0.40366   0.65130   0.00000  Uiso   1.00
H40    H     0.94426   0.47246   0.73970   0.00000  Uiso   1.00
H41    H     0.09808   0.54904   0.16651   0.00000  Uiso   1.00
H42    H     0.10286   0.55143   0.61683   0.00000  Uiso   1.00
H43    H     0.45096   0.54904   0.16651   0.00000  Uiso   1.00
H44    H     0.44857   0.55143   0.61683   0.00000  Uiso   1.00
H45    H     0.45096   0.90192   0.16651   0.00000  Uiso   1.00
H46    H     0.44857   0.89714   0.61683   0.00000  Uiso   1.00
H47    H     1.59542   1.19216   0.64496   0.00000  Uiso   1.00
H48    H     1.52955   1.06029   0.73994   0.00000  Uiso   1.00
loop_
_geom_bond_atom_site_label_1
_geom_bond_atom_site_label_2
_geom_bond_distance
_geom_bond_site_symmetry_2
_ccdc_geom_bond_type
N1     C16     1.360   .     A
N1     C24     1.360   .     A
C2     C21     1.408   .     A
C2     C4      1.414   .     A
C2     H34     1.140   .     S
C3     C23     1.420   .     A
C3     C4      1.426   .     A
C3     N5      1.361   .     S
C4     C33     1.407   .     S
N5     H35     1.110   .     S
N5     H36     1.110   .     S
N6     C20     1.360   .     A
N6     C16     1.360   .     A
C7     C25     1.408   1_545 A
C7     C9      1.414   .     A
C7     H37     1.140   .     S
C8     C27     1.420   1_545 A
C8     C9      1.426   .     A
C8     N10     1.361   .     S
C9     C31     1.407   .     S
N10    H47     1.110   1_445 S
N10    H48     1.082   1_445 S
N11    C24     1.360   .     A
N11    C20     1.360   .     A
C12    C17     1.408   1_655 A
C12    C14     1.414   .     A
C12    H38     1.140   .     S
C13    C19     1.420   1_655 A
C13    C14     1.426   .     A
C13    N15     1.361   .     S
C14    C32     1.407   .     S
N15    H39     1.110   .     S
N15    H40     1.110   .     S
C16    C18     1.405   .     S
C17    C18     1.410   .     A
C17    C12     1.408   1_455 A
C17    H41     1.140   .     S
C18    C19     1.412   .     A
C19    C13     1.420   1_455 A
C19    H42     1.140   .     S
C20    C22     1.405   .     S
C21    C22     1.410   .     A
C21    H43     1.140   .     S
C22    C23     1.412   .     A
C23    H44     1.140   .     S
C24    C26     1.405   .     S
C25    C26     1.410   .     A
C25    C7      1.408   1_565 A
C25    H45     1.140   .     S
C26    C27     1.412   .     A
C27    C8      1.420   1_565 A
C27    H46     1.140   .     S
N28    C31     1.361   .     A
N28    C33     1.361   .     A
N29    C32     1.361   .     A
N29    C31     1.361   .     A
N30    C33     1.361   .     A
N30    C32     1.361   .     A
H47    N10     1.110   1_665 S
H48    N10     1.082   1_665 S
